dss/export/hidra-caso1-modificado/Line.dss
New Line.13446853 bus1=3814019_p bus2=13446853_p length=0.002236 units=3 r1=1.4012 r0=0.1784 x1=0.510155 x0=0.4047 c1=3.4 c0=1.6 enabled=true phases=3
New Line.13555564 bus1=13555570_p bus2=13555564_p length=0.050311 units=3 r1=0.170025 r0=0.1784 x1=0.403132 x0=0.4047 c1=3.4 c0=1.6 enabled=true phases=3
New Line.13555570 bus1=13555616_p bus2=13555570_p length=0.050833 units=3 r1=0.170025 r0=0.1784 x1=0.403132 x0=0.4047 c1=3.4 c0=1.6 enabled=true phases=3
New Line.13555616 bus1=13555627_p bus2=13555616_p length=0.049527 units=3 r1=0.170025 r0=0.1784 x1=0.403132 x0=0.4047 c1=3.4 c0=1.6 enabled=true phases=3
New Line.13555627 bus1=13555633_p bus2=13555627_p length=0.050375 units=3 r1=0.170025 r0=0.1784 x1=0.403132 x0=0.4047 c1=3.4 c0=1.6 enabled=true phases=3
New Line.13555633 bus1=13555649_p bus2=13555633_p length=0.052415 units=3 r1=0.170025 r0=0.1784 x1=0.403132 x0=0.4047 c1=3.4 c0=1.6 enabled=true phases=3
New Line.13555649 bus1=13555660_p bus2=13555649_p length=0.052649 units=3 r1=0.170025 r0=0.1784 x1=0.403132 x0=0.4047 c1=3.4 c0=1.6 enabled=true phases=3
New Line.13555660 bus1=13555666_p bus2=13555660_p length=0.05169 units=3 r1=0.170025 r0=0.1784 x1=0.403132 x0=0.4047 c1=3.4 c0=1.6 enabled=true phases=3
New Line.13555666 bus1=13602024_p bus2=13555666_p length=0.052023 units=3 r1=0.170025 r0=0.1784 x1=0.403132 x0=0.4047 c1=3.4 c0=1.6 enabled=true phases=3
New Line.13602024 bus1=13602065_p bus2=13602024_p length=0.050145 units=3 r1=0.170025 r0=0.1784 x1=0.403132 x0=0.4047 c1=3.4 c0=1.6 enabled=true phases=3
New Line.13602065 bus1=13602070_p bus2=13602065_p length=0.050125 units=3 r1=0.170025 r0=0.1784 x1=0.403132 x0=0.4047 c1=3.4 c0=1.6 enabled=true phases=3
New Line.13602070 bus1=13981264_p bus2=13602070_p length=0.051765 units=3 r1=0.170025 r0=0.1784 x1=0.403132 x0=0.4047 c1=3.4 c0=1.6 enabled=true phases=3
New Line.13602075 bus1=3845020_p bus2=13602075_p length=0.020232 units=3 r1=0.590194 r0=0.1784 x1=0.492469 x0=0.4047 c1=3.4 c0=1.6 enabled=true phases=3
New Line.13912616 bus1=3806737_p bus2=13912616_p length=0.036412 units=3 r1=1.274004 r0=0.1784 x1=0.272879 x0=0.4047 c1=3.4 c0=1.6 enabled=true phases=3
New Line.13912631 bus1=2913152_p bus2=13912631_p length=0.017703 units=3 r1=0.170025 r0=0.1784 x1=0.403132 x0=0.4047 c1=3.4 c0=1.6 enabled=true phases=3
New Line.13981264 bus1=13981269_p bus2=13981264_p length=0.052765 units=3 r1=0.170025 r0=0.1784 x1=0.403132 x0=0.4047 c1=3.4 c0=1.6 enabled=true phases=3
New Line.13981269 bus1=13981274_p bus2=13981269_p length=0.051351 units=3 r1=0.170025 r0=0.1784 x1=0.403132 x0=0.4047 c1=3.4 c0=1.6 enabled=true phases=3
New Line.13981274 bus1=13981279_p bus2=13981274_p length=0.051288 units=3 r1=0.170025 r0=0.1784 x1=0.403132 x0=0.4047 c1=3.4 c0=1.6 enabled=true phases=3
New Line.13981279 bus1=13981284_p bus2=13981279_p length=0.053174 units=3 r1=0.170025 r0=0.1784 x1=0.403132 x0=0.4047 c1=3.4 c0=1.6 enabled=true phases=3
New Line.13981284 bus1=13981290_p bus2=13981284_p length=0.054168 units=3 r1=0.170025 r0=0.1784 x1=0.403132 x0=0.4047 c1=3.4 c0=1.6 enabled=true phases=3
New Line.13981290 bus1=13981299_p bus2=13981290_p length=0.041678 units=3 r1=0.170025 r0=0.1784 x1=0.403132 x0=0.4047 c1=3.4 c0=1.6 enabled=true phases=3
New Line.13981299 bus1=13981304_p bus2=13981299_p length=0.045856 units=3 r1=0.170025 r0=0.1784 x1=0.403132 x0=0.4047 c1=3.4 c0=1.6 enabled=true phases=3
New Line.13981304 bus1=13981309_p bus2=13981304_p length=0.044672 units=3 r1=0.170025 r0=0.1784 x1=0.403132 x0=0.4047 c1=3.4 c0=1.6 enabled=true phases=3
New Line.13981309 bus1=13981314_p bus2=13981309_p length=0.04701 units=3 r1=0.170025 r0=0.1784 x1=0.403132 x0=0.4047 c1=3.4 c0=1.6 enabled=true phases=3
New Line.13981314 bus1=13981329_p bus2=13981314_p length=0.047418 units=3 r1=0.170025 r0=0.1784 x1=0.403132 x0=0.4047 c1=3.4 c0=1.6 enabled=true phases=3
New Line.13981324 bus1=2915583_p bus2=13981324_p length=0.056813 units=3 r1=0.170025 r0=0.1784 x1=0.403132 x0=0.4047 c1=3.4 c0=1.6 enabled=true phases=3
New Line.13981329 bus1=13981334_p bus2=13981329_p length=0.045596 units=3 r1=0.170025 r0=0.1784 x1=0.403132 x0=0.4047 c1=3.4 c0=1.6 enabled=true phases=3
New Line.13981334 bus1=13981339_p bus2=13981334_p length=0.048025 units=3 r1=0.170025 r0=0.1784 x1=0.403132 x0=0.4047 c1=3.4 c0=1.6 enabled=true phases=3
New Line.13981339 bus1=13981344_p bus2=13981339_p length=0.049719 units=3 r1=0.170025 r0=0.1784 x1=0.403132 x0=0.4047 c1=3.4 c0=1.6 enabled=true phases=3
New Line.13981344 bus1=13981349_p bus2=13981344_p length=0.039901 units=3 r1=0.170025 r0=0.1784 x1=0.403132 x0=0.4047 c1=3.4 c0=1.6 enabled=true phases=3
New Line.13981349 bus1=13981354_p bus2=13981349_p length=0.038645 units=3 r1=0.170025 r0=0.1784 x1=0.403132 x0=0.4047 c1=3.4 c0=1.6 enabled=true phases=3
New Line.13981354 bus1=13981324_p bus2=13981354_p length=0.046001 units=3 r1=0.170025 r0=0.1784 x1=0.403132 x0=0.4047 c1=3.4 c0=1.6 enabled=true phases=3
New Line.14016067 bus1=3837992_p bus2=14016067_p length=0.016 units=3 r1=0.826272 r0=0.1784 x1=0.466878 x0=0.4047 c1=3.4 c0=1.6 enabled=true phases=3
New Line.14016068 bus1=14016067_p bus2=14016068_p length=0.019313 units=3 r1=0.826272 r0=0.1784 x1=0.466878 x0=0.4047 c1=3.4 c0=1.6 enabled=true phases=3
New Line.14016081 bus1=14016068_p bus2=14016081_p length=0.050999 units=3 r1=0.826272 r0=0.1784 x1=0.466878 x0=0.4047 c1=3.4 c0=1.6 enabled=true phases=3
New Line.14016088 bus1=14016081_p bus2=14016088_p length=0.04 units=3 r1=0.826272 r0=0.1784 x1=0.466878 x0=0.4047 c1=3.4 c0=1.6 enabled=true phases=3
New Line.14016095 bus1=14016088_p bus2=14016095_p length=0.006203 units=3 r1=0.826272 r0=0.1784 x1=0.466878 x0=0.4047 c1=3.4 c0=1.6 enabled=true phases=3
New Line.14016207 bus1=3810137_p bus2=14016207_p length=0.010666 units=3 r1=1.725008 r0=0.1784 x1=0.289527 x0=0.4047 c1=3.4 c0=1.6 enabled=true phases=3
New Line.14016214 bus1=14016207_p bus2=14016214_p length=0.0228 units=3 r1=1.725008 r0=0.1784 x1=0.289527 x0=0.4047 c1=3.4 c0=1.6 enabled=true phases=3
New Line.14016221 bus1=14016214_p bus2=14016221_p length=0.009722 units=3 r1=1.725008 r0=0.1784 x1=0.289527 x0=0.4047 c1=3.4 c0=1.6 enabled=true phases=3
New Line.14016237 bus1=14016221_p bus2=14016237_p length=0.056899 units=3 r1=0.826272 r0=0.1784 x1=0.466878 x0=0.4047 c1=3.4 c0=1.6 enabled=true phases=3
New Line.14016246 bus1=14016237_p bus2=14016246_p length=0.055399 units=3 r1=0.826272 r0=0.1784 x1=0.466878 x0=0.4047 c1=3.4 c0=1.6 enabled=true phases=3
New Line.14016254 bus1=14016246_p bus2=14016254_p length=0.01203 units=3 r1=1.725008 r0=0.1784 x1=0.289527 x0=0.4047 c1=3.4 c0=1.6 enabled=true phases=3
New Line.14016261 bus1=14016254_p bus2=14016261_p length=0.009611 units=3 r1=1.725008 r0=0.1784 x1=0.289527 x0=0.4047 c1=3.4 c0=1.6 enabled=true phases=3
New Line.14070073 bus1=13912616_p bus2=14070073_p length=0.024354 units=3 r1=1.274004 r0=0.1784 x1=0.272879 x0=0.4047 c1=3.4 c0=1.6 enabled=true phases=3
New Line.16144232 bus1=3823305_p bus2=16144232_p length=0.000999 units=3 r1=0.63736 r0=0.1784 x1=0.480809 x0=0.4047 c1=3.4 c0=1.6 enabled=true phases=3
New Line.16144242 bus1=3747406_p bus2=16144242_p length=0.001 units=3 r1=1.18051 r0=0.1784 x1=0.480509 x0=0.4047 c1=3.4 c0=1.6 enabled=true phases=3
New Line.16370734 bus1=3844387_p bus2=16370734_p length=0.059528 units=3 r1=0.590194 r0=0.1784 x1=0.492469 x0=0.4047 c1=3.4 c0=1.6 enabled=true phases=3
New Line.16370741 bus1=16370734_p bus2=16370741_p length=0.06 units=3 r1=0.590194 r0=0.1784 x1=0.492469 x0=0.4047 c1=3.4 c0=1.6 enabled=true phases=3
New Line.16370748 bus1=16370741_p bus2=16370748_p length=0.059999 units=3 r1=0.590194 r0=0.1784 x1=0.492469 x0=0.4047 c1=3.4 c0=1.6 enabled=true phases=3
New Line.16370756 bus1=16370748_p bus2=16370756_p length=0.06 units=3 r1=0.590194 r0=0.1784 x1=0.492469 x0=0.4047 c1=3.4 c0=1.6 enabled=true phases=3
New Line.16370763 bus1=16370756_p bus2=16370763_p length=0.06 units=3 r1=0.590194 r0=0.1784 x1=0.492469 x0=0.4047 c1=3.4 c0=1.6 enabled=true phases=3
New Line.16370770 bus1=16370763_p bus2=16370770_p length=0.06 units=3 r1=0.590194 r0=0.1784 x1=0.492469 x0=0.4047 c1=3.4 c0=1.6 enabled=true phases=3
New Line.16370777 bus1=16370770_p bus2=16370777_p length=0.059999 units=3 r1=0.590194 r0=0.1784 x1=0.492469 x0=0.4047 c1=3.4 c0=1.6 enabled=true phases=3
New Line.16370784 bus1=16370777_p bus2=16370784_p length=0.059999 units=3 r1=0.590194 r0=0.1784 x1=0.492469 x0=0.4047 c1=3.4 c0=1.6 enabled=true phases=3
New Line.16370792 bus1=16370784_p bus2=16370792_p length=0.06 units=3 r1=0.590194 r0=0.1784 x1=0.492469 x0=0.4047 c1=3.4 c0=1.6 enabled=true phases=3
New Line.16370799 bus1=16370792_p bus2=16370799_p length=0.06 units=3 r1=0.590194 r0=0.1784 x1=0.492469 x0=0.4047 c1=3.4 c0=1.6 enabled=true phases=3
New Line.16370837 bus1=16370799_p bus2=16370837_p length=0.058743 units=3 r1=0.590194 r0=0.1784 x1=0.492469 x0=0.4047 c1=3.4 c0=1.6 enabled=true phases=3
New Line.2166300 bus1=2913320_p bus2=2166300_p length=0.05085 units=3 r1=0.170025 r0=0.1784 x1=0.403132 x0=0.4047 c1=3.4 c0=1.6 enabled=true phases=3
New Line.2912998 bus1=2912993_p bus2=2912998_p length=0.041807 units=3 r1=0.248217 r0=0.1784 x1=0.211558 x0=0.4047 c1=3.4 c0=1.6 enabled=true phases=3
New Line.2913003 bus1=2912998_p bus2=2913003_p length=0.036614 units=3 r1=0.248217 r0=0.1784 x1=0.211558 x0=0.4047 c1=3.4 c0=1.6 enabled=true phases=3
New Line.2913008 bus1=2913003_p bus2=2913008_p length=0.009895 units=3 r1=0.248217 r0=0.1784 x1=0.211558 x0=0.4047 c1=3.4 c0=1.6 enabled=true phases=3
New Line.2913013 bus1=2913008_p bus2=2913013_p length=0.070099 units=3 r1=0.248217 r0=0.1784 x1=0.211558 x0=0.4047 c1=3.4 c0=1.6 enabled=true phases=3
New Line.2913018 bus1=2913013_p bus2=2913018_p length=0.004653 units=3 r1=0.248217 r0=0.1784 x1=0.211558 x0=0.4047 c1=3.4 c0=1.6 enabled=true phases=3
New Line.2913100 bus1=2913018_p bus2=2913100_p length=0.04058 units=3 r1=0.170025 r0=0.1784 x1=0.403132 x0=0.4047 c1=3.4 c0=1.6 enabled=true phases=3
New Line.2913105 bus1=2913100_p bus2=2913105_p length=0.042247 units=3 r1=0.170025 r0=0.1784 x1=0.403132 x0=0.4047 c1=3.4 c0=1.6 enabled=true phases=3
New Line.2913110 bus1=2913105_p bus2=2913110_p length=0.066117 units=3 r1=0.170025 r0=0.1784 x1=0.403132 x0=0.4047 c1=3.4 c0=1.6 enabled=true phases=3
New Line.2913115 bus1=2913110_p bus2=2913115_p length=0.033658 units=3 r1=0.170025 r0=0.1784 x1=0.403132 x0=0.4047 c1=3.4 c0=1.6 enabled=true phases=3
New Line.2913120 bus1=2913115_p bus2=2913120_p length=0.075442 units=3 r1=0.170025 r0=0.1784 x1=0.403132 x0=0.4047 c1=3.4 c0=1.6 enabled=true phases=3
New Line.2913125 bus1=2913120_p bus2=2913125_p length=0.063638 units=3 r1=0.170025 r0=0.1784 x1=0.403132 x0=0.4047 c1=3.4 c0=1.6 enabled=true phases=3
New Line.2913130 bus1=2913125_p bus2=2913130_p length=0.042732 units=3 r1=0.170025 r0=0.1784 x1=0.403132 x0=0.4047 c1=3.4 c0=1.6 enabled=true phases=3
New Line.2913136 bus1=2913130_p bus2=2913136_p length=0.040714 units=3 r1=0.170025 r0=0.1784 x1=0.403132 x0=0.4047 c1=3.4 c0=1.6 enabled=true phases=3
New Line.2913141 bus1=2913136_p bus2=2913141_p length=0.028217 units=3 r1=0.170025 r0=0.1784 x1=0.403132 x0=0.4047 c1=3.4 c0=1.6 enabled=true phases=3
New Line.2913146 bus1=2913141_p bus2=2913146_p length=0.034423 units=3 r1=0.170025 r0=0.1784 x1=0.403132 x0=0.4047 c1=3.4 c0=1.6 enabled=true phases=3
New Line.2913152 bus1=2913146_p bus2=2913152_p length=0.0069 units=3 r1=0.170025 r0=0.1784 x1=0.403132 x0=0.4047 c1=3.4 c0=1.6 enabled=true phases=3
New Line.2913157 bus1=13912631_p bus2=2913157_p length=0.118967 units=3 r1=0.170025 r0=0.1784 x1=0.403132 x0=0.4047 c1=3.4 c0=1.6 enabled=true phases=3
New Line.2913162 bus1=2913157_p bus2=2913162_p length=0.085183 units=3 r1=0.170025 r0=0.1784 x1=0.403132 x0=0.4047 c1=3.4 c0=1.6 enabled=true phases=3
New Line.2913167 bus1=2913162_p bus2=2913167_p length=0.07459 units=3 r1=0.170025 r0=0.1784 x1=0.403132 x0=0.4047 c1=3.4 c0=1.6 enabled=true phases=3
New Line.2913172 bus1=2913167_p bus2=2913172_p length=0.076708 units=3 r1=0.170025 r0=0.1784 x1=0.403132 x0=0.4047 c1=3.4 c0=1.6 enabled=true phases=3
New Line.2913177 bus1=2913172_p bus2=2913177_p length=0.075918 units=3 r1=0.170025 r0=0.1784 x1=0.403132 x0=0.4047 c1=3.4 c0=1.6 enabled=true phases=3
New Line.2913182 bus1=2913177_p bus2=2913182_p length=0.075679 units=3 r1=0.170025 r0=0.1784 x1=0.403132 x0=0.4047 c1=3.4 c0=1.6 enabled=true phases=3
New Line.2913188 bus1=2913182_p bus2=2913188_p length=0.074097 units=3 r1=0.170025 r0=0.1784 x1=0.403132 x0=0.4047 c1=3.4 c0=1.6 enabled=true phases=3
New Line.2913193 bus1=2913188_p bus2=2913193_p length=0.020509 units=3 r1=0.248217 r0=0.1784 x1=0.211558 x0=0.4047 c1=3.4 c0=1.6 enabled=true phases=3
New Line.2913225 bus1=2913193_p bus2=2913225_p length=0.069543 units=3 r1=0.248217 r0=0.1784 x1=0.211558 x0=0.4047 c1=3.4 c0=1.6 enabled=true phases=3
New Line.2913230 bus1=2913225_p bus2=2913230_p length=0.065012 units=3 r1=0.170025 r0=0.1784 x1=0.403132 x0=0.4047 c1=3.4 c0=1.6 enabled=true phases=3
New Line.2913235 bus1=2913230_p bus2=2913235_p length=0.069049 units=3 r1=0.170025 r0=0.1784 x1=0.403132 x0=0.4047 c1=3.4 c0=1.6 enabled=true phases=3
New Line.2913240 bus1=2913235_p bus2=2913240_p length=0.041243 units=3 r1=0.248217 r0=0.1784 x1=0.211558 x0=0.4047 c1=3.4 c0=1.6 enabled=true phases=3
New Line.2913245 bus1=2913240_p bus2=2913245_p length=0.06655 units=3 r1=0.170025 r0=0.1784 x1=0.403132 x0=0.4047 c1=3.4 c0=1.6 enabled=true phases=3
New Line.2913250 bus1=2913245_p bus2=2913250_p length=0.071541 units=3 r1=0.170025 r0=0.1784 x1=0.403132 x0=0.4047 c1=3.4 c0=1.6 enabled=true phases=3
New Line.2913255 bus1=2913250_p bus2=2913255_p length=0.053399 units=3 r1=0.170025 r0=0.1784 x1=0.403132 x0=0.4047 c1=3.4 c0=1.6 enabled=true phases=3
New Line.2913260 bus1=2913255_p bus2=2913260_p length=0.054279 units=3 r1=0.170025 r0=0.1784 x1=0.403132 x0=0.4047 c1=3.4 c0=1.6 enabled=true phases=3
New Line.2913265 bus1=2913260_p bus2=2913265_p length=0.082637 units=3 r1=0.248217 r0=0.1784 x1=0.211558 x0=0.4047 c1=3.4 c0=1.6 enabled=true phases=3
New Line.2913270 bus1=2913265_p bus2=2913270_p length=0.057639 units=3 r1=0.170025 r0=0.1784 x1=0.403132 x0=0.4047 c1=3.4 c0=1.6 enabled=true phases=3
New Line.2913275 bus1=2913270_p bus2=2913275_p length=0.05043 units=3 r1=0.170025 r0=0.1784 x1=0.403132 x0=0.4047 c1=3.4 c0=1.6 enabled=true phases=3
New Line.2913280 bus1=2913275_p bus2=2913280_p length=0.029395 units=3 r1=0.248217 r0=0.1784 x1=0.211558 x0=0.4047 c1=3.4 c0=1.6 enabled=true phases=3
New Line.2913285 bus1=2913280_p bus2=2913285_p length=0.071162 units=3 r1=0.170025 r0=0.1784 x1=0.403132 x0=0.4047 c1=3.4 c0=1.6 enabled=true phases=3
New Line.2913290 bus1=2913285_p bus2=2913290_p length=0.065302 units=3 r1=0.170025 r0=0.1784 x1=0.403132 x0=0.4047 c1=3.4 c0=1.6 enabled=true phases=3
New Line.2913296 bus1=2913290_p bus2=2913296_p length=0.102585 units=3 r1=0.170025 r0=0.1784 x1=0.403132 x0=0.4047 c1=3.4 c0=1.6 enabled=true phases=3
New Line.2913308 bus1=2913296_p bus2=2913308_p length=0.050898 units=3 r1=0.170025 r0=0.1784 x1=0.403132 x0=0.4047 c1=3.4 c0=1.6 enabled=true phases=3
New Line.2913314 bus1=2913308_p bus2=2913314_p length=0.05166 units=3 r1=0.170025 r0=0.1784 x1=0.403132 x0=0.4047 c1=3.4 c0=1.6 enabled=true phases=3
New Line.2913320 bus1=2913314_p bus2=2913320_p length=0.050316 units=3 r1=0.170025 r0=0.1784 x1=0.403132 x0=0.4047 c1=3.4 c0=1.6 enabled=true phases=3
New Line.2915466 bus1=2166300_p bus2=2915466_p length=0.049994 units=3 r1=0.170025 r0=0.1784 x1=0.403132 x0=0.4047 c1=3.4 c0=1.6 enabled=true phases=3
New Line.2915480 bus1=2915466_p bus2=2915480_p length=0.050531 units=3 r1=0.170025 r0=0.1784 x1=0.403132 x0=0.4047 c1=3.4 c0=1.6 enabled=true phases=3
New Line.2915486 bus1=2915480_p bus2=2915486_p length=0.052196 units=3 r1=0.170025 r0=0.1784 x1=0.403132 x0=0.4047 c1=3.4 c0=1.6 enabled=true phases=3
New Line.2915494 bus1=2915486_p bus2=2915494_p length=0.052031 units=3 r1=0.170025 r0=0.1784 x1=0.403132 x0=0.4047 c1=3.4 c0=1.6 enabled=true phases=3
New Line.2915505 bus1=2915494_p bus2=2915505_p length=0.052021 units=3 r1=0.170025 r0=0.1784 x1=0.403132 x0=0.4047 c1=3.4 c0=1.6 enabled=true phases=3
New Line.2915511 bus1=2915505_p bus2=2915511_p length=0.051078 units=3 r1=0.170025 r0=0.1784 x1=0.403132 x0=0.4047 c1=3.4 c0=1.6 enabled=true phases=3
New Line.2915533 bus1=2915511_p bus2=2915533_p length=0.051087 units=3 r1=0.170025 r0=0.1784 x1=0.403132 x0=0.4047 c1=3.4 c0=1.6 enabled=true phases=3
New Line.2915538 bus1=2915533_p bus2=2915538_p length=0.050013 units=3 r1=0.170025 r0=0.1784 x1=0.403132 x0=0.4047 c1=3.4 c0=1.6 enabled=true phases=3
New Line.2915549 bus1=2915538_p bus2=2915549_p length=0.04462 units=3 r1=0.170025 r0=0.1784 x1=0.403132 x0=0.4047 c1=3.4 c0=1.6 enabled=true phases=3
New Line.2915555 bus1=2915549_p bus2=2915555_p length=0.049792 units=3 r1=0.170025 r0=0.1784 x1=0.403132 x0=0.4047 c1=3.4 c0=1.6 enabled=true phases=3
New Line.2915571 bus1=2915555_p bus2=2915571_p length=0.04932 units=3 r1=0.170025 r0=0.1784 x1=0.403132 x0=0.4047 c1=3.4 c0=1.6 enabled=true phases=3
New Line.2915583 bus1=2915571_p bus2=2915583_p length=0.049996 units=3 r1=0.170025 r0=0.1784 x1=0.403132 x0=0.4047 c1=3.4 c0=1.6 enabled=true phases=3
New Line.2915600 bus1=2915605_p bus2=2915600_p length=0.03554 units=3 r1=0.170025 r0=0.1784 x1=0.403132 x0=0.4047 c1=3.4 c0=1.6 enabled=true phases=3
New Line.2915605 bus1=2915610_p bus2=2915605_p length=0.034176 units=3 r1=0.170025 r0=0.1784 x1=0.403132 x0=0.4047 c1=3.4 c0=1.6 enabled=true phases=3
New Line.2915610 bus1=2915615_p bus2=2915610_p length=0.050516 units=3 r1=0.170025 r0=0.1784 x1=0.403132 x0=0.4047 c1=3.4 c0=1.6 enabled=true phases=3
New Line.2915615 bus1=2915620_p bus2=2915615_p length=0.051698 units=3 r1=0.170025 r0=0.1784 x1=0.403132 x0=0.4047 c1=3.4 c0=1.6 enabled=true phases=3
New Line.2915620 bus1=2915625_p bus2=2915620_p length=0.052064 units=3 r1=0.170025 r0=0.1784 x1=0.403132 x0=0.4047 c1=3.4 c0=1.6 enabled=true phases=3
New Line.2915625 bus1=13555564_p bus2=2915625_p length=0.023826 units=3 r1=0.170025 r0=0.1784 x1=0.403132 x0=0.4047 c1=3.4 c0=1.6 enabled=true phases=3
New Line.3747361 bus1=3820126_p bus2=3747361_p length=0.055603 units=3 r1=0.345921 r0=0.1784 x1=0.429519 x0=0.4047 c1=3.4 c0=1.6 enabled=true phases=3
New Line.3747406 bus1=3838228_p bus2=3747406_p length=0.043265 units=3 r1=0.88412 r0=0.1784 x1=0.493172 x0=0.4047 c1=3.4 c0=1.6 enabled=true phases=3
New Line.3747428 bus1=3806226_p bus2=3747428_p length=0.054575 units=3 r1=1.4012 r0=0.1784 x1=0.510155 x0=0.4047 c1=3.4 c0=1.6 enabled=true phases=3
New Line.3747826 bus1=3808162_p bus2=3747826_p length=0.0286 units=3 r1=0.63736 r0=0.1784 x1=0.480809 x0=0.4047 c1=3.4 c0=1.6 enabled=true phases=3
New Line.3747858 bus1=3812641_p bus2=3747858_p length=0.108521 units=3 r1=0.88412 r0=0.1784 x1=0.493172 x0=0.4047 c1=3.4 c0=1.6 enabled=true phases=3
New Line.3747979 bus1=2915605_p bus2=3747979_p length=0.004686 units=3 r1=0.345921 r0=0.1784 x1=0.429519 x0=0.4047 c1=3.4 c0=1.6 enabled=true phases=3
New Line.3747990 bus1=3813327_p bus2=3747990_p length=0.068281 units=3 r1=0.88412 r0=0.1784 x1=0.493172 x0=0.4047 c1=3.4 c0=1.6 enabled=true phases=3
New Line.3747991 bus1=3747990_p bus2=3747991_p length=0.066753 units=3 r1=0.88412 r0=0.1784 x1=0.493172 x0=0.4047 c1=3.4 c0=1.6 enabled=true phases=3
New Line.3747992 bus1=3747991_p bus2=3747992_p length=0.008627 units=3 r1=0.88412 r0=0.1784 x1=0.493172 x0=0.4047 c1=3.4 c0=1.6 enabled=true phases=3
New Line.3747993 bus1=3747992_p bus2=3747993_p length=0.013468 units=3 r1=0.88412 r0=0.1784 x1=0.493172 x0=0.4047 c1=3.4 c0=1.6 enabled=true phases=3
New Line.3748213 bus1=3813106_p bus2=3748213_p length=0.051122 units=3 r1=0.63736 r0=0.1784 x1=0.480809 x0=0.4047 c1=3.4 c0=1.6 enabled=true phases=3
New Line.3748216 bus1=3748213_p bus2=3748216_p length=0.048331 units=3 r1=1.18051 r0=0.1784 x1=0.480509 x0=0.4047 c1=3.4 c0=1.6 enabled=true phases=3
New Line.3748257 bus1=3747992_p bus2=3748257_p length=0.050337 units=3 r1=0.88412 r0=0.1784 x1=0.493172 x0=0.4047 c1=3.4 c0=1.6 enabled=true phases=3
New Line.3748258 bus1=3810156_p bus2=3748258_p length=0.02997 units=3 r1=0.88412 r0=0.1784 x1=0.493172 x0=0.4047 c1=3.4 c0=1.6 enabled=true phases=3
New Line.3748380 bus1=3838094_p bus2=3748380_p length=0.054824 units=3 r1=0.4712 r0=0.1784 x1=0.465394 x0=0.4047 c1=3.4 c0=1.6 enabled=true phases=3
New Line.3748429 bus1=3806170_p bus2=3748429_p length=0.202643 units=3 r1=1.18051 r0=0.1784 x1=0.480509 x0=0.4047 c1=3.4 c0=1.6 enabled=true phases=3
New Line.3748430 bus1=3805164_p bus2=3748430_p length=0.063995 units=3 r1=0.826272 r0=0.1784 x1=0.466878 x0=0.4047 c1=3.4 c0=1.6 enabled=true phases=3
New Line.3748431 bus1=3748430_p bus2=3748431_p length=0.084088 units=3 r1=0.826272 r0=0.1784 x1=0.466878 x0=0.4047 c1=3.4 c0=1.6 enabled=true phases=3
New Line.3748432 bus1=3748431_p bus2=3748432_p length=0.083983 units=3 r1=0.826272 r0=0.1784 x1=0.466878 x0=0.4047 c1=3.4 c0=1.6 enabled=true phases=3
New Line.3805083 bus1=14070073_p bus2=3805083_p length=0.06474 units=3 r1=0.88412 r0=0.1784 x1=0.493172 x0=0.4047 c1=3.4 c0=1.6 enabled=true phases=3
New Line.3805128 bus1=3748432_p bus2=3805128_p length=0.11725 units=3 r1=0.826272 r0=0.1784 x1=0.466878 x0=0.4047 c1=3.4 c0=1.6 enabled=true phases=3
New Line.3805129 bus1=3812694_p bus2=3805129_p length=0.079656 units=3 r1=0.826272 r0=0.1784 x1=0.466878 x0=0.4047 c1=3.4 c0=1.6 enabled=true phases=3
New Line.3805164 bus1=3812380_p bus2=3805164_p length=0.076052 units=3 r1=0.826272 r0=0.1784 x1=0.466878 x0=0.4047 c1=3.4 c0=1.6 enabled=true phases=3
New Line.3805213 bus1=3810847_p bus2=3805213_p length=0.023098 units=3 r1=1.652666 r0=0.1784 x1=0.492469 x0=0.4047 c1=3.4 c0=1.6 enabled=true phases=3
New Line.3805214 bus1=3805213_p bus2=3805214_p length=0.081904 units=3 r1=1.652666 r0=0.1784 x1=0.492469 x0=0.4047 c1=3.4 c0=1.6 enabled=true phases=3
New Line.3805215 bus1=3805214_p bus2=3805215_p length=0.080299 units=3 r1=1.652666 r0=0.1784 x1=0.492469 x0=0.4047 c1=3.4 c0=1.6 enabled=true phases=3
New Line.3805216 bus1=3805215_p bus2=3805216_p length=0.078346 units=3 r1=1.652666 r0=0.1784 x1=0.492469 x0=0.4047 c1=3.4 c0=1.6 enabled=true phases=3
New Line.3805217 bus1=3805216_p bus2=3805217_p length=0.021639 units=3 r1=1.652666 r0=0.1784 x1=0.492469 x0=0.4047 c1=3.4 c0=1.6 enabled=true phases=3
New Line.3805218 bus1=3805217_p bus2=3805218_p length=0.031917 units=3 r1=1.652666 r0=0.1784 x1=0.492469 x0=0.4047 c1=3.4 c0=1.6 enabled=true phases=3
New Line.3805219 bus1=3805218_p bus2=3805219_p length=0.007559 units=3 r1=1.652666 r0=0.1784 x1=0.492469 x0=0.4047 c1=3.4 c0=1.6 enabled=true phases=3
New Line.3805220 bus1=3805218_p bus2=3805220_p length=0.010543 units=3 r1=1.652666 r0=0.1784 x1=0.492469 x0=0.4047 c1=3.4 c0=1.6 enabled=true phases=3
New Line.3805221 bus1=3805220_p bus2=3805221_p length=0.064975 units=3 r1=1.652666 r0=0.1784 x1=0.492469 x0=0.4047 c1=3.4 c0=1.6 enabled=true phases=3
New Line.3805222 bus1=3805221_p bus2=3805222_p length=0.064477 units=3 r1=1.652666 r0=0.1784 x1=0.492469 x0=0.4047 c1=3.4 c0=1.6 enabled=true phases=3
New Line.3805223 bus1=3805222_p bus2=3805223_p length=0.084051 units=3 r1=1.652666 r0=0.1784 x1=0.492469 x0=0.4047 c1=3.4 c0=1.6 enabled=true phases=3
New Line.3805224 bus1=3805223_p bus2=3805224_p length=0.110658 units=3 r1=1.652666 r0=0.1784 x1=0.492469 x0=0.4047 c1=3.4 c0=1.6 enabled=true phases=3
New Line.3805225 bus1=3805224_p bus2=3805225_p length=0.078 units=3 r1=1.652666 r0=0.1784 x1=0.492469 x0=0.4047 c1=3.4 c0=1.6 enabled=true phases=3
New Line.3805226 bus1=3805225_p bus2=3805226_p length=0.03768 units=3 r1=1.652666 r0=0.1784 x1=0.492469 x0=0.4047 c1=3.4 c0=1.6 enabled=true phases=3
New Line.3805256 bus1=3806456_p bus2=3805256_p length=0.018118 units=3 r1=0.882256 r0=0.1784 x1=0.260208 x0=0.4047 c1=3.4 c0=1.6 enabled=true phases=3
New Line.3806170 bus1=3747361_p bus2=3806170_p length=0.054247 units=3 r1=0.345921 r0=0.1784 x1=0.429519 x0=0.4047 c1=3.4 c0=1.6 enabled=true phases=3
New Line.3806218 bus1=3806233_p bus2=3806218_p length=0.053166 units=3 r1=1.4012 r0=0.1784 x1=0.510155 x0=0.4047 c1=3.4 c0=1.6 enabled=true phases=3
New Line.3806219 bus1=3806233_p bus2=3806219_p length=0.071202 units=3 r1=1.4012 r0=0.1784 x1=0.510155 x0=0.4047 c1=3.4 c0=1.6 enabled=true phases=3
New Line.3806220 bus1=3806219_p bus2=3806220_p length=0.063025 units=3 r1=1.4012 r0=0.1784 x1=0.510155 x0=0.4047 c1=3.4 c0=1.6 enabled=true phases=3
New Line.3806221 bus1=3806220_p bus2=3806221_p length=0.074858 units=3 r1=1.4012 r0=0.1784 x1=0.510155 x0=0.4047 c1=3.4 c0=1.6 enabled=true phases=3
New Line.3806222 bus1=3806221_p bus2=3806222_p length=0.048031 units=3 r1=1.4012 r0=0.1784 x1=0.510155 x0=0.4047 c1=3.4 c0=1.6 enabled=true phases=3
New Line.3806224 bus1=3806249_p bus2=3806224_p length=0.07515 units=3 r1=1.4012 r0=0.1784 x1=0.510155 x0=0.4047 c1=3.4 c0=1.6 enabled=true phases=3
New Line.3806225 bus1=3806224_p bus2=3806225_p length=0.086736 units=3 r1=1.4012 r0=0.1784 x1=0.510155 x0=0.4047 c1=3.4 c0=1.6 enabled=true phases=3
New Line.3806226 bus1=3806225_p bus2=3806226_p length=0.053422 units=3 r1=1.4012 r0=0.1784 x1=0.510155 x0=0.4047 c1=3.4 c0=1.6 enabled=true phases=3
New Line.3806227 bus1=3808079_p bus2=3806227_p length=0.010952 units=3 r1=3.7858 r0=0.1784 x1=0.319004 x0=0.4047 c1=3.4 c0=1.6 enabled=true phases=3
New Line.3806233 bus1=3806247_p bus2=3806233_p length=0.083051 units=3 r1=1.4012 r0=0.1784 x1=0.510155 x0=0.4047 c1=3.4 c0=1.6 enabled=true phases=3
New Line.3806238 bus1=3806268_p bus2=3806238_p length=0.075899 units=3 r1=0.4712 r0=0.1784 x1=0.465394 x0=0.4047 c1=3.4 c0=1.6 enabled=true phases=3
New Line.3806239 bus1=3824294_p bus2=3806239_p length=0.089695 units=3 r1=0.88412 r0=0.1784 x1=0.493172 x0=0.4047 c1=3.4 c0=1.6 enabled=true phases=3
New Line.3806241 bus1=3819062_p bus2=3806241_p length=0.022514 units=3 r1=0.88412 r0=0.1784 x1=0.493172 x0=0.4047 c1=3.4 c0=1.6 enabled=true phases=3
New Line.3806243 bus1=3812870_p bus2=3806243_p length=0.065127 units=3 r1=1.4012 r0=0.1784 x1=0.510155 x0=0.4047 c1=3.4 c0=1.6 enabled=true phases=3
New Line.3806244 bus1=3806243_p bus2=3806244_p length=0.049764 units=3 r1=1.4012 r0=0.1784 x1=0.510155 x0=0.4047 c1=3.4 c0=1.6 enabled=true phases=3
New Line.3806247 bus1=3806244_p bus2=3806247_p length=0.087363 units=3 r1=1.4012 r0=0.1784 x1=0.510155 x0=0.4047 c1=3.4 c0=1.6 enabled=true phases=3
New Line.3806249 bus1=3806218_p bus2=3806249_p length=0.061487 units=3 r1=1.4012 r0=0.1784 x1=0.510155 x0=0.4047 c1=3.4 c0=1.6 enabled=true phases=3
New Line.3806256 bus1=3806346_p bus2=3806256_p length=0.103898 units=3 r1=1.4012 r0=0.1784 x1=0.510155 x0=0.4047 c1=3.4 c0=1.6 enabled=true phases=3
New Line.3806259 bus1=3813147_p bus2=3806259_p length=0.020403 units=3 r1=0.88412 r0=0.1784 x1=0.493172 x0=0.4047 c1=3.4 c0=1.6 enabled=true phases=3
New Line.3806267 bus1=3806318_p bus2=3806267_p length=0.076435 units=3 r1=0.4712 r0=0.1784 x1=0.465394 x0=0.4047 c1=3.4 c0=1.6 enabled=true phases=3
New Line.3806268 bus1=3806267_p bus2=3806268_p length=0.070609 units=3 r1=0.4712 r0=0.1784 x1=0.465394 x0=0.4047 c1=3.4 c0=1.6 enabled=true phases=3
New Line.3806317 bus1=3812368_p bus2=3806317_p length=0.064607 units=3 r1=1.4012 r0=0.1784 x1=0.510155 x0=0.4047 c1=3.4 c0=1.6 enabled=true phases=3
New Line.3806318 bus1=3812644_p bus2=3806318_p length=0.024883 units=3 r1=0.4712 r0=0.1784 x1=0.465394 x0=0.4047 c1=3.4 c0=1.6 enabled=true phases=3
New Line.3806319 bus1=3812631_p bus2=3806319_p length=0.040803 units=3 r1=0.32612 r0=0.1784 x1=0.45145 x0=0.4047 c1=3.4 c0=1.6 enabled=true phases=3
New Line.3806321 bus1=3806319_p bus2=3806321_p length=0.035301 units=3 r1=0.32612 r0=0.1784 x1=0.45145 x0=0.4047 c1=3.4 c0=1.6 enabled=true phases=3
New Line.3806322 bus1=3806321_p bus2=3806322_p length=0.04267 units=3 r1=0.32612 r0=0.1784 x1=0.45145 x0=0.4047 c1=3.4 c0=1.6 enabled=true phases=3
New Line.3806333 bus1=3823263_p bus2=3806333_p length=0.062447 units=3 r1=0.32612 r0=0.1784 x1=0.45145 x0=0.4047 c1=3.4 c0=1.6 enabled=true phases=3
New Line.3806336 bus1=3806358_p bus2=3806336_p length=0.073318 units=3 r1=1.4012 r0=0.1784 x1=0.510155 x0=0.4047 c1=3.4 c0=1.6 enabled=true phases=3
New Line.3806344 bus1=3806336_p bus2=3806344_p length=0.056841 units=3 r1=1.4012 r0=0.1784 x1=0.510155 x0=0.4047 c1=3.4 c0=1.6 enabled=true phases=3
New Line.3806345 bus1=3806344_p bus2=3806345_p length=0.091556 units=3 r1=1.4012 r0=0.1784 x1=0.510155 x0=0.4047 c1=3.4 c0=1.6 enabled=true phases=3
New Line.3806346 bus1=3812623_p bus2=3806346_p length=0.052405 units=3 r1=1.4012 r0=0.1784 x1=0.510155 x0=0.4047 c1=3.4 c0=1.6 enabled=true phases=3
New Line.3806347 bus1=3806256_p bus2=3806347_p length=0.010981 units=3 r1=0.63736 r0=0.1784 x1=0.480809 x0=0.4047 c1=3.4 c0=1.6 enabled=true phases=3
New Line.3806348 bus1=3806347_p bus2=3806348_p length=0.008183 units=3 r1=0.63736 r0=0.1784 x1=0.480809 x0=0.4047 c1=3.4 c0=1.6 enabled=true phases=3
New Line.3806349 bus1=3806348_p bus2=3806349_p length=0.042908 units=3 r1=1.4012 r0=0.1784 x1=0.510155 x0=0.4047 c1=3.4 c0=1.6 enabled=true phases=3
New Line.3806350 bus1=3806349_p bus2=3806350_p length=0.038714 units=3 r1=1.4012 r0=0.1784 x1=0.510155 x0=0.4047 c1=3.4 c0=1.6 enabled=true phases=3
New Line.3806351 bus1=3806350_p bus2=3806351_p length=0.018923 units=3 r1=1.4012 r0=0.1784 x1=0.510155 x0=0.4047 c1=3.4 c0=1.6 enabled=true phases=3
New Line.3806352 bus1=3806351_p bus2=3806352_p length=0.089874 units=3 r1=1.4012 r0=0.1784 x1=0.510155 x0=0.4047 c1=3.4 c0=1.6 enabled=true phases=3
New Line.3806357 bus1=3806378_p bus2=3806357_p length=0.035746 units=3 r1=0.4712 r0=0.1784 x1=0.465394 x0=0.4047 c1=3.4 c0=1.6 enabled=true phases=3
New Line.3806358 bus1=3812921_p bus2=3806358_p length=0.049076 units=3 r1=1.4012 r0=0.1784 x1=0.510155 x0=0.4047 c1=3.4 c0=1.6 enabled=true phases=3
New Line.3806372 bus1=3806717_p bus2=3806372_p length=0.099089 units=3 r1=0.590194 r0=0.1784 x1=0.492469 x0=0.4047 c1=3.4 c0=1.6 enabled=true phases=3
New Line.3806373 bus1=3806372_p bus2=3806373_p length=0.103018 units=3 r1=0.590194 r0=0.1784 x1=0.492469 x0=0.4047 c1=3.4 c0=1.6 enabled=true phases=3
New Line.3806374 bus1=3806373_p bus2=3806374_p length=0.000593 units=3 r1=1.4012 r0=0.1784 x1=0.510155 x0=0.4047 c1=3.4 c0=1.6 enabled=true phases=3
...
